<?xml version="1.0" encoding="UTF-8"?>

<!-- generated on 2022-03-15 10:56:12 by Eclipse SUMO netedit Version 1.10.0
<configuration xmlns:xsi="http://www.w3.org/2001/XMLSchema-instance" xsi:noNamespaceSchemaLocation="http://sumo.dlr.de/xsd/netconvertConfiguration.xsd">

    <input>
        <sumo-net-file value="F:\learn_science\sumo\ROUTE\demo.net.xml"/>
    </input>

    <output>
        <output-file value="F:\learn_science\sumo\ROUTE\demo.net.xml"/>
    </output>

    <processing>
        <geometry.min-radius.fix.railways value="false"/>
        <geometry.max-grade.fix value="false"/>
        <offset.disable-normalization value="true"/>
        <lefthand value="false"/>
    </processing>

    <junctions>
        <no-turnarounds value="true"/>
        <junctions.corner-detail value="5"/>
        <junctions.limit-turn-speed value="5.5"/>
        <rectangular-lane-cut value="false"/>
    </junctions>

    <pedestrian>
        <walkingareas value="false"/>
    </pedestrian>

    <report>
        <aggregate-warnings value="5"/>
    </report>

</configuration>
-->

<net version="1.9" junctionCornerDetail="5" limitTurnSpeed="5.50" xmlns:xsi="http://www.w3.org/2001/XMLSchema-instance" xsi:noNamespaceSchemaLocation="http://sumo.dlr.de/xsd/net_file.xsd">

    <location netOffset="0.00,0.00" convBoundary="0.00,-800.00,1200.00,1000.00" origBoundary="-10000000000.00,-10000000000.00,10000000000.00,10000000000.00" projParameter="!"/>

    <edge id=":gneJ23_0" function="internal">
        <lane id=":gneJ23_0_0" index="0" speed="6.51" length="9.03" shape="992.00,513.60 991.65,511.15 990.60,509.40 988.85,508.35 986.40,508.00"/>
        <lane id=":gneJ23_0_1" index="1" speed="8.00" length="14.19" shape="995.20,513.60 994.65,509.75 993.00,507.00 990.25,505.35 986.40,504.80"/>
    </edge>
    <edge id=":gneJ23_2" function="internal">
        <lane id=":gneJ23_2_0" index="0" speed="30.00" length="27.20" shape="995.20,513.60 995.20,486.40"/>
        <lane id=":gneJ23_2_1" index="1" speed="30.00" length="27.20" shape="998.40,513.60 998.40,486.40"/>
    </edge>
    <edge id=":gneJ23_4" function="internal">
        <lane id=":gneJ23_4_0" index="0" speed="30.00" length="27.20" shape="1008.00,486.40 1008.00,513.60"/>
        <lane id=":gneJ23_4_1" index="1" speed="30.00" length="27.20" shape="1004.80,486.40 1004.80,513.60"/>
    </edge>
    <edge id=":gneJ23_6" function="internal">
        <lane id=":gneJ23_6_0" index="0" speed="10.36" length="24.51" shape="1001.60,486.40 1000.65,493.05 997.80,497.80 993.05,500.65 986.40,501.60"/>
    </edge>
    <edge id=":gneJ23_7" function="internal">
        <lane id=":gneJ23_7_0" index="0" speed="6.51" length="9.03" shape="986.40,492.00 988.85,491.65 990.60,490.60 991.65,488.85 992.00,486.40"/>
        <lane id=":gneJ23_7_1" index="1" speed="8.00" length="14.19" shape="986.40,495.20 990.25,494.65 993.00,493.00 994.65,490.25 995.20,486.40"/>
    </edge>
    <edge id=":gneJ23_9" function="internal">
        <lane id=":gneJ23_9_0" index="0" speed="10.36" length="24.51" shape="986.40,498.40 993.05,499.35 997.80,502.20 1000.65,506.95 1001.60,513.60"/>
    </edge>
    <edge id=":gneJ25_0" function="internal">
        <lane id=":gneJ25_0_0" index="0" speed="11.12" length="28.38" shape="1008.00,990.40 1006.90,998.10 1003.60,1003.60 998.10,1006.90 990.40,1008.00"/>
        <lane id=":gneJ25_0_1" index="1" speed="10.10" length="23.22" shape="1004.80,990.40 1003.90,996.70 1001.20,1001.20 996.70,1003.90 990.40,1004.80"/>
        <lane id=":gneJ25_0_2" index="2" speed="8.96" length="18.06" shape="1001.60,990.40 1000.90,995.30 998.80,998.80 995.30,1000.90 990.40,1001.60"/>
    </edge>
    <edge id=":gneJ25_3" function="internal">
        <lane id=":gneJ25_3_0" index="0" speed="3.90" length="2.58" shape="990.40,992.00 991.10,991.90 991.60,991.60 991.90,991.10 992.00,990.40"/>
        <lane id=":gneJ25_3_1" index="1" speed="6.08" length="7.74" shape="990.40,995.20 992.50,994.90 994.00,994.00 994.90,992.50 995.20,990.40"/>
        <lane id=":gneJ25_3_2" index="2" speed="7.66" length="12.90" shape="990.40,998.40 993.90,997.90 996.40,996.40 997.90,993.90 998.40,990.40"/>
    </edge>
    <edge id=":gneJ27_0" function="internal">
        <lane id=":gneJ27_0_0" index="0" speed="6.51" length="9.03" shape="492.00,513.60 491.65,511.15 490.60,509.40 488.85,508.35 486.40,508.00"/>
    </edge>
    <edge id=":gneJ27_1" function="internal">
        <lane id=":gneJ27_1_0" index="0" speed="30.00" length="27.20" shape="495.20,513.60 495.20,486.40"/>
    </edge>
    <edge id=":gneJ27_2" function="internal">
        <lane id=":gneJ27_2_0" index="0" speed="10.36" length="24.51" shape="498.40,513.60 499.35,506.95 502.20,502.20 506.95,499.35 513.60,498.40"/>
    </edge>
    <edge id=":gneJ27_3" function="internal">
        <lane id=":gneJ27_3_0" index="0" speed="6.51" length="9.03" shape="513.60,508.00 511.15,508.35 509.40,509.40 508.35,511.15 508.00,513.60"/>
    </edge>
    <edge id=":gneJ27_4" function="internal">
        <lane id=":gneJ27_4_0" index="0" speed="30.00" length="27.20" shape="513.60,504.80 486.40,504.80"/>
    </edge>
    <edge id=":gneJ27_5" function="internal">
        <lane id=":gneJ27_5_0" index="0" speed="10.36" length="24.51" shape="513.60,501.60 506.95,500.65 502.20,497.80 499.35,493.05 498.40,486.40"/>
    </edge>
    <edge id=":gneJ27_6" function="internal">
        <lane id=":gneJ27_6_0" index="0" speed="6.51" length="9.03" shape="508.00,486.40 508.35,488.85 509.40,490.60 511.15,491.65 513.60,492.00"/>
    </edge>
    <edge id=":gneJ27_7" function="internal">
        <lane id=":gneJ27_7_0" index="0" speed="30.00" length="27.20" shape="504.80,486.40 504.80,513.60"/>
    </edge>
    <edge id=":gneJ27_8" function="internal">
        <lane id=":gneJ27_8_0" index="0" speed="10.36" length="24.51" shape="501.60,486.40 500.65,493.05 497.80,497.80 493.05,500.65 486.40,501.60"/>
    </edge>
    <edge id=":gneJ27_9" function="internal">
        <lane id=":gneJ27_9_0" index="0" speed="6.51" length="9.03" shape="486.40,492.00 488.85,491.65 490.60,490.60 491.65,488.85 492.00,486.40"/>
    </edge>
    <edge id=":gneJ27_10" function="internal">
        <lane id=":gneJ27_10_0" index="0" speed="30.00" length="27.20" shape="486.40,495.20 513.60,495.20"/>
    </edge>
    <edge id=":gneJ27_11" function="internal">
        <lane id=":gneJ27_11_0" index="0" speed="10.36" length="24.51" shape="486.40,498.40 493.05,499.35 497.80,502.20 500.65,506.95 501.60,513.60"/>
    </edge>
    <edge id=":gneJ28_0" function="internal">
        <lane id=":gneJ28_0_0" index="0" speed="30.00" length="27.20" shape="513.60,1008.00 486.40,1008.00"/>
        <lane id=":gneJ28_0_1" index="1" speed="30.00" length="27.20" shape="513.60,1004.80 486.40,1004.80"/>
    </edge>
    <edge id=":gneJ28_2" function="internal">
        <lane id=":gneJ28_2_0" index="0" speed="10.36" length="24.51" shape="513.60,1001.60 506.95,1000.65 502.20,997.80 499.35,993.05 498.40,986.40"/>
    </edge>
    <edge id=":gneJ28_3" function="internal">
        <lane id=":gneJ28_3_0" index="0" speed="6.51" length="9.03" shape="508.00,986.40 508.35,988.85 509.40,990.60 511.15,991.65 513.60,992.00"/>
        <lane id=":gneJ28_3_1" index="1" speed="8.00" length="14.19" shape="504.80,986.40 505.35,990.25 507.00,993.00 509.75,994.65 513.60,995.20"/>
    </edge>
    <edge id=":gneJ28_5" function="internal">
        <lane id=":gneJ28_5_0" index="0" speed="10.36" length="24.51" shape="501.60,986.40 500.65,993.05 497.80,997.80 493.05,1000.65 486.40,1001.60"/>
    </edge>
    <edge id=":gneJ28_6" function="internal">
        <lane id=":gneJ28_6_0" index="0" speed="6.51" length="9.03" shape="486.40,992.00 488.85,991.65 490.60,990.60 491.65,988.85 492.00,986.40"/>
        <lane id=":gneJ28_6_1" index="1" speed="8.00" length="14.19" shape="486.40,995.20 490.25,994.65 493.00,993.00 494.65,990.25 495.20,986.40"/>
    </edge>
    <edge id=":gneJ28_8" function="internal">
        <lane id=":gneJ28_8_0" index="0" speed="30.00" length="27.20" shape="486.40,995.20 513.60,995.20"/>
        <lane id=":gneJ28_8_1" index="1" speed="30.00" length="27.20" shape="486.40,998.40 513.60,998.40"/>
    </edge>
    <edge id=":gneJ29_0" function="internal">
        <lane id=":gneJ29_0_0" index="0" speed="6.51" length="9.03" shape="492.00,13.60 491.65,11.15 490.60,9.40 488.85,8.35 486.40,8.00"/>
        <lane id=":gneJ29_0_1" index="1" speed="8.00" length="14.19" shape="495.20,13.60 494.65,9.75 493.00,7.00 490.25,5.35 486.40,4.80"/>
    </edge>
    <edge id=":gneJ29_2" function="internal">
        <lane id=":gneJ29_2_0" index="0" speed="10.36" length="24.51" shape="498.40,13.60 499.35,6.95 502.20,2.20 506.95,-0.65 513.60,-1.60"/>
    </edge>
    <edge id=":gneJ29_3" function="internal">
        <lane id=":gneJ29_3_0" index="0" speed="6.51" length="9.03" shape="513.60,8.00 511.15,8.35 509.40,9.40 508.35,11.15 508.00,13.60"/>
        <lane id=":gneJ29_3_1" index="1" speed="8.00" length="14.19" shape="513.60,4.80 509.75,5.35 507.00,7.00 505.35,9.75 504.80,13.60"/>
    </edge>
    <edge id=":gneJ29_5" function="internal">
        <lane id=":gneJ29_5_0" index="0" speed="30.00" length="27.20" shape="513.60,4.80 486.40,4.80"/>
        <lane id=":gneJ29_5_1" index="1" speed="30.00" length="27.20" shape="513.60,1.60 486.40,1.60"/>
    </edge>
    <edge id=":gneJ29_7" function="internal">
        <lane id=":gneJ29_7_0" index="0" speed="30.00" length="27.20" shape="486.40,-8.00 513.60,-8.00"/>
        <lane id=":gneJ29_7_1" index="1" speed="30.00" length="27.20" shape="486.40,-4.80 513.60,-4.80"/>
    </edge>
    <edge id=":gneJ29_9" function="internal">
        <lane id=":gneJ29_9_0" index="0" speed="10.36" length="24.51" shape="486.40,-1.60 493.05,-0.65 497.80,2.20 500.65,6.95 501.60,13.60"/>
    </edge>
    <edge id=":gneJ30_0" function="internal">
        <lane id=":gneJ30_0_0" index="0" speed="3.90" length="2.58" shape="992.00,9.60 991.90,8.90 991.60,8.40 991.10,8.10 990.40,8.00"/>
        <lane id=":gneJ30_0_1" index="1" speed="6.08" length="7.74" shape="995.20,9.60 994.90,7.50 994.00,6.00 992.50,5.10 990.40,4.80"/>
        <lane id=":gneJ30_0_2" index="2" speed="7.66" length="12.90" shape="998.40,9.60 997.90,6.10 996.40,3.60 993.90,2.10 990.40,1.60"/>
    </edge>
    <edge id=":gneJ30_3" function="internal">
        <lane id=":gneJ30_3_0" index="0" speed="11.12" length="28.38" shape="990.40,-8.00 998.10,-6.90 1003.60,-3.60 1006.90,1.90 1008.00,9.60"/>
        <lane id=":gneJ30_3_1" index="1" speed="10.10" length="23.22" shape="990.40,-4.80 996.70,-3.90 1001.20,-1.20 1003.90,3.30 1004.80,9.60"/>
        <lane id=":gneJ30_3_2" index="2" speed="8.96" length="18.06" shape="990.40,-1.60 995.30,-0.90 998.80,1.20 1000.90,4.70 1001.60,9.60"/>
    </edge>
    <edge id=":gneJ32_0" function="internal">
        <lane id=":gneJ32_0_0" index="0" speed="30.00" length="27.20" shape="-8.00,513.60 -8.00,486.40"/>
        <lane id=":gneJ32_0_1" index="1" speed="30.00" length="27.20" shape="-4.80,513.60 -4.80,486.40"/>
    </edge>
    <edge id=":gneJ32_2" function="internal">
        <lane id=":gneJ32_2_0" index="0" speed="10.36" length="24.51" shape="-1.60,513.60 -0.65,506.95 2.20,502.20 6.95,499.35 13.60,498.40"/>
    </edge>
    <edge id=":gneJ32_3" function="internal">
        <lane id=":gneJ32_3_0" index="0" speed="6.51" length="9.03" shape="13.60,508.00 11.15,508.35 9.40,509.40 8.35,511.15 8.00,513.60"/>
        <lane id=":gneJ32_3_1" index="1" speed="8.00" length="14.19" shape="13.60,504.80 9.75,505.35 7.00,507.00 5.35,509.75 4.80,513.60"/>
    </edge>
    <edge id=":gneJ32_5" function="internal">
        <lane id=":gneJ32_5_0" index="0" speed="10.36" length="24.51" shape="13.60,501.60 6.95,500.65 2.20,497.80 -0.65,493.05 -1.60,486.40"/>
    </edge>
    <edge id=":gneJ32_6" function="internal">
        <lane id=":gneJ32_6_0" index="0" speed="6.51" length="9.03" shape="8.00,486.40 8.35,488.85 9.40,490.60 11.15,491.65 13.60,492.00"/>
        <lane id=":gneJ32_6_1" index="1" speed="8.00" length="14.19" shape="4.80,486.40 5.35,490.25 7.00,493.00 9.75,494.65 13.60,495.20"/>
    </edge>
    <edge id=":gneJ32_8" function="internal">
        <lane id=":gneJ32_8_0" index="0" speed="30.00" length="27.20" shape="4.80,486.40 4.80,513.60"/>
        <lane id=":gneJ32_8_1" index="1" speed="30.00" length="27.20" shape="1.60,486.40 1.60,513.60"/>
    </edge>
    <edge id=":gneJ33_0" function="internal">
        <lane id=":gneJ33_0_0" index="0" speed="11.12" length="28.38" shape="9.60,1008.00 1.90,1006.90 -3.60,1003.60 -6.90,998.10 -8.00,990.40"/>
        <lane id=":gneJ33_0_1" index="1" speed="10.10" length="23.22" shape="9.60,1004.80 3.30,1003.90 -1.20,1001.20 -3.90,996.70 -4.80,990.40"/>
        <lane id=":gneJ33_0_2" index="2" speed="8.96" length="18.06" shape="9.60,1001.60 4.70,1000.90 1.20,998.80 -0.90,995.30 -1.60,990.40"/>
    </edge>
    <edge id=":gneJ33_3" function="internal">
        <lane id=":gneJ33_3_0" index="0" speed="3.90" length="2.58" shape="8.00,990.40 8.10,991.10 8.40,991.60 8.90,991.90 9.60,992.00"/>
        <lane id=":gneJ33_3_1" index="1" speed="6.08" length="7.74" shape="4.80,990.40 5.10,992.50 6.00,994.00 7.50,994.90 9.60,995.20"/>
        <lane id=":gneJ33_3_2" index="2" speed="7.66" length="12.90" shape="1.60,990.40 2.10,993.90 3.60,996.40 6.10,997.90 9.60,998.40"/>
    </edge>
    <edge id=":gneJ34_0" function="internal">
        <lane id=":gneJ34_0_0" index="0" speed="11.12" length="28.38" shape="-8.00,9.60 -6.90,1.90 -3.60,-3.60 1.90,-6.90 9.60,-8.00"/>
        <lane id=":gneJ34_0_1" index="1" speed="10.10" length="23.22" shape="-4.80,9.60 -3.90,3.30 -1.20,-1.20 3.30,-3.90 9.60,-4.80"/>
        <lane id=":gneJ34_0_2" index="2" speed="8.96" length="18.06" shape="-1.60,9.60 -0.90,4.70 1.20,1.20 4.70,-0.90 9.60,-1.60"/>
    </edge>
    <edge id=":gneJ34_3" function="internal">
        <lane id=":gneJ34_3_0" index="0" speed="3.90" length="2.58" shape="9.60,8.00 8.90,8.10 8.40,8.40 8.10,8.90 8.00,9.60"/>
        <lane id=":gneJ34_3_1" index="1" speed="6.08" length="7.74" shape="9.60,4.80 7.50,5.10 6.00,6.00 5.10,7.50 4.80,9.60"/>
        <lane id=":gneJ34_3_2" index="2" speed="7.66" length="12.90" shape="9.60,1.60 6.10,2.10 3.60,3.60 2.10,6.10 1.60,9.60"/>
    </edge>

    <edge id="-gneE24" from="gneJ25" to="gneJ23" priority="-1" length="500.00">
        <lane id="-gneE24_0" index="0" speed="30.00" length="500.00" shape="992.00,990.40 992.00,513.60"/>
        <lane id="-gneE24_1" index="1" speed="30.00" length="500.00" shape="995.20,990.40 995.20,513.60"/>
        <lane id="-gneE24_2" index="2" speed="30.00" length="500.00" shape="998.40,990.40 998.40,513.60"/>
    </edge>
    <edge id="-gneE27" from="gneJ27" to="gneJ23" priority="-1" length="500.00">
        <lane id="-gneE27_0" index="0" speed="30.00" length="500.00" shape="513.60,492.00 986.40,492.00"/>
        <lane id="-gneE27_1" index="1" speed="30.00" length="500.00" shape="513.60,495.20 986.40,495.20"/>
        <lane id="-gneE27_2" index="2" speed="30.00" length="500.00" shape="513.60,498.40 986.40,498.40"/>
    </edge>
    <edge id="-gneE28" from="gneJ28" to="gneJ27" priority="-1" length="500.00">
        <lane id="-gneE28_0" index="0" speed="30.00" length="500.00" shape="492.00,986.40 492.00,513.60"/>
        <lane id="-gneE28_1" index="1" speed="30.00" length="500.00" shape="495.20,986.40 495.20,513.60"/>
        <lane id="-gneE28_2" index="2" speed="30.00" length="500.00" shape="498.40,986.40 498.40,513.60"/>
    </edge>
    <edge id="-gneE29" from="gneJ25" to="gneJ28" priority="-1" length="500.00">
        <lane id="-gneE29_0" index="0" speed="30.00" length="500.00" shape="990.40,1008.00 513.60,1008.00"/>
        <lane id="-gneE29_1" index="1" speed="30.00" length="500.00" shape="990.40,1004.80 513.60,1004.80"/>
        <lane id="-gneE29_2" index="2" speed="30.00" length="500.00" shape="990.40,1001.60 513.60,1001.60"/>
    </edge>
    <edge id="-gneE30" from="gneJ29" to="gneJ27" priority="-1" length="500.00">
        <lane id="-gneE30_0" index="0" speed="30.00" length="500.00" shape="508.00,13.60 508.00,486.40"/>
        <lane id="-gneE30_1" index="1" speed="30.00" length="500.00" shape="504.80,13.60 504.80,486.40"/>
        <lane id="-gneE30_2" index="2" speed="30.00" length="500.00" shape="501.60,13.60 501.60,486.40"/>
    </edge>
    <edge id="-gneE31" from="gneJ30" to="gneJ29" priority="-1" length="500.00">
        <lane id="-gneE31_0" index="0" speed="30.00" length="500.00" shape="990.40,8.00 513.60,8.00"/>
        <lane id="-gneE31_1" index="1" speed="30.00" length="500.00" shape="990.40,4.80 513.60,4.80"/>
        <lane id="-gneE31_2" index="2" speed="30.00" length="500.00" shape="990.40,1.60 513.60,1.60"/>
    </edge>
    <edge id="-gneE32" from="gneJ23" to="gneJ30" priority="-1" length="500.00">
        <lane id="-gneE32_0" index="0" speed="30.00" length="500.00" shape="992.00,486.40 992.00,9.60"/>
        <lane id="-gneE32_1" index="1" speed="30.00" length="500.00" shape="995.20,486.40 995.20,9.60"/>
        <lane id="-gneE32_2" index="2" speed="30.00" length="500.00" shape="998.40,486.40 998.40,9.60"/>
    </edge>
    <edge id="-gneE35" from="gneJ32" to="gneJ27" priority="-1" length="500.00">
        <lane id="-gneE35_0" index="0" speed="30.00" length="500.00" shape="13.60,492.00 486.40,492.00"/>
        <lane id="-gneE35_1" index="1" speed="30.00" length="500.00" shape="13.60,495.20 486.40,495.20"/>
        <lane id="-gneE35_2" index="2" speed="30.00" length="500.00" shape="13.60,498.40 486.40,498.40"/>
    </edge>
    <edge id="-gneE36" from="gneJ33" to="gneJ32" priority="-1" length="500.00">
        <lane id="-gneE36_0" index="0" speed="30.00" length="500.00" shape="-8.00,990.40 -8.00,513.60"/>
        <lane id="-gneE36_1" index="1" speed="30.00" length="500.00" shape="-4.80,990.40 -4.80,513.60"/>
        <lane id="-gneE36_2" index="2" speed="30.00" length="500.00" shape="-1.60,990.40 -1.60,513.60"/>
    </edge>
    <edge id="-gneE37" from="gneJ28" to="gneJ33" priority="-1" length="500.00">
        <lane id="-gneE37_0" index="0" speed="30.00" length="500.00" shape="486.40,1008.00 9.60,1008.00"/>
        <lane id="-gneE37_1" index="1" speed="30.00" length="500.00" shape="486.40,1004.80 9.60,1004.80"/>
        <lane id="-gneE37_2" index="2" speed="30.00" length="500.00" shape="486.40,1001.60 9.60,1001.60"/>
    </edge>
    <edge id="-gneE38" from="gneJ34" to="gneJ32" priority="-1" length="500.00">
        <lane id="-gneE38_0" index="0" speed="30.00" length="500.00" shape="8.00,9.60 8.00,486.40"/>
        <lane id="-gneE38_1" index="1" speed="30.00" length="500.00" shape="4.80,9.60 4.80,486.40"/>
        <lane id="-gneE38_2" index="2" speed="30.00" length="500.00" shape="1.60,9.60 1.60,486.40"/>
    </edge>
    <edge id="-gneE39" from="gneJ29" to="gneJ34" priority="-1" length="500.00">
        <lane id="-gneE39_0" index="0" speed="30.00" length="500.00" shape="486.40,8.00 9.60,8.00"/>
        <lane id="-gneE39_1" index="1" speed="30.00" length="500.00" shape="486.40,4.80 9.60,4.80"/>
        <lane id="-gneE39_2" index="2" speed="30.00" length="500.00" shape="486.40,1.60 9.60,1.60"/>
    </edge>
    <edge id="gneE24" from="gneJ23" to="gneJ25" priority="-1" length="500.00">
        <lane id="gneE24_0" index="0" speed="30.00" length="500.00" shape="1008.00,513.60 1008.00,990.40"/>
        <lane id="gneE24_1" index="1" speed="30.00" length="500.00" shape="1004.80,513.60 1004.80,990.40"/>
        <lane id="gneE24_2" index="2" speed="30.00" length="500.00" shape="1001.60,513.60 1001.60,990.40"/>
    </edge>
    <edge id="gneE27" from="gneJ23" to="gneJ27" priority="-1" length="500.00">
        <lane id="gneE27_0" index="0" speed="30.00" length="500.00" shape="986.40,508.00 513.60,508.00"/>
        <lane id="gneE27_1" index="1" speed="30.00" length="500.00" shape="986.40,504.80 513.60,504.80"/>
        <lane id="gneE27_2" index="2" speed="30.00" length="500.00" shape="986.40,501.60 513.60,501.60"/>
    </edge>
    <edge id="gneE28" from="gneJ27" to="gneJ28" priority="-1" length="500.00">
        <lane id="gneE28_0" index="0" speed="30.00" length="500.00" shape="508.00,513.60 508.00,986.40"/>
        <lane id="gneE28_1" index="1" speed="30.00" length="500.00" shape="504.80,513.60 504.80,986.40"/>
        <lane id="gneE28_2" index="2" speed="30.00" length="500.00" shape="501.60,513.60 501.60,986.40"/>
    </edge>
    <edge id="gneE29" from="gneJ28" to="gneJ25" priority="-1" length="500.00">
        <lane id="gneE29_0" index="0" speed="30.00" length="500.00" shape="513.60,992.00 990.40,992.00"/>
        <lane id="gneE29_1" index="1" speed="30.00" length="500.00" shape="513.60,995.20 990.40,995.20"/>
        <lane id="gneE29_2" index="2" speed="30.00" length="500.00" shape="513.60,998.40 990.40,998.40"/>
    </edge>
    <edge id="gneE30" from="gneJ27" to="gneJ29" priority="-1" length="500.00">
        <lane id="gneE30_0" index="0" speed="30.00" length="500.00" shape="492.00,486.40 492.00,13.60"/>
        <lane id="gneE30_1" index="1" speed="30.00" length="500.00" shape="495.20,486.40 495.20,13.60"/>
        <lane id="gneE30_2" index="2" speed="30.00" length="500.00" shape="498.40,486.40 498.40,13.60"/>
    </edge>
    <edge id="gneE31" from="gneJ29" to="gneJ30" priority="-1" length="500.00">
        <lane id="gneE31_0" index="0" speed="30.00" length="500.00" shape="513.60,-8.00 990.40,-8.00"/>
        <lane id="gneE31_1" index="1" speed="30.00" length="500.00" shape="513.60,-4.80 990.40,-4.80"/>
        <lane id="gneE31_2" index="2" speed="30.00" length="500.00" shape="513.60,-1.60 990.40,-1.60"/>
    </edge>
    <edge id="gneE32" from="gneJ30" to="gneJ23" priority="-1" length="500.00">
        <lane id="gneE32_0" index="0" speed="30.00" length="500.00" shape="1008.00,9.60 1008.00,486.40"/>
        <lane id="gneE32_1" index="1" speed="30.00" length="500.00" shape="1004.80,9.60 1004.80,486.40"/>
        <lane id="gneE32_2" index="2" speed="30.00" length="500.00" shape="1001.60,9.60 1001.60,486.40"/>
    </edge>
    <edge id="gneE35" from="gneJ27" to="gneJ32" priority="-1" length="500.00">
        <lane id="gneE35_0" index="0" speed="30.00" length="500.00" shape="486.40,508.00 13.60,508.00"/>
        <lane id="gneE35_1" index="1" speed="30.00" length="500.00" shape="486.40,504.80 13.60,504.80"/>
        <lane id="gneE35_2" index="2" speed="30.00" length="500.00" shape="486.40,501.60 13.60,501.60"/>
    </edge>
    <edge id="gneE36" from="gneJ32" to="gneJ33" priority="-1" length="500.00">
        <lane id="gneE36_0" index="0" speed="30.00" length="500.00" shape="8.00,513.60 8.00,990.40"/>
        <lane id="gneE36_1" index="1" speed="30.00" length="500.00" shape="4.80,513.60 4.80,990.40"/>
        <lane id="gneE36_2" index="2" speed="30.00" length="500.00" shape="1.60,513.60 1.60,990.40"/>
    </edge>
    <edge id="gneE37" from="gneJ33" to="gneJ28" priority="-1" length="500.00">
        <lane id="gneE37_0" index="0" speed="30.00" length="500.00" shape="9.60,992.00 486.40,992.00"/>
        <lane id="gneE37_1" index="1" speed="30.00" length="500.00" shape="9.60,995.20 486.40,995.20"/>
        <lane id="gneE37_2" index="2" speed="30.00" length="500.00" shape="9.60,998.40 486.40,998.40"/>
    </edge>
    <edge id="gneE38" from="gneJ32" to="gneJ34" priority="-1" length="500.00">
        <lane id="gneE38_0" index="0" speed="30.00" length="500.00" shape="-8.00,486.40 -8.00,9.60"/>
        <lane id="gneE38_1" index="1" speed="30.00" length="500.00" shape="-4.80,486.40 -4.80,9.60"/>
        <lane id="gneE38_2" index="2" speed="30.00" length="500.00" shape="-1.60,486.40 -1.60,9.60"/>
    </edge>
    <edge id="gneE39" from="gneJ34" to="gneJ29" priority="-1" length="500.00">
        <lane id="gneE39_0" index="0" speed="30.00" length="500.00" shape="9.60,-8.00 486.40,-8.00"/>
        <lane id="gneE39_1" index="1" speed="30.00" length="500.00" shape="9.60,-4.80 486.40,-4.80"/>
        <lane id="gneE39_2" index="2" speed="30.00" length="500.00" shape="9.60,-1.60 486.40,-1.60"/>
    </edge>

    <tlLogic id="gneJ23" type="static" programID="0" offset="0">
        <phase duration="40" state="GGGGGGrGGr"/>
        <phase duration="6"  state="yyyyyyryyr"/>
        <phase duration="40" state="GGrrGGGGGr"/>
        <phase duration="6"  state="yyrryyyyyr"/>
        <phase duration="40" state="GGrrGGrGGG"/>
        <phase duration="6"  state="YYrrYYrYYY"/>
    </tlLogic>
    <tlLogic id="gneJ25" type="static" programID="0" offset="0">
        <phase duration="35" state="GGGGGGr"/>
    </tlLogic>
    <tlLogic id="gneJ27" type="static" programID="0" offset="0">
        <phase duration="19" state="GGrGrrrGGrGrr"/>
        <phase duration="6"  state="yyryrrryyryrr"/>
        <phase duration="19" state="rrGrrrrrrGrrr"/>
        <phase duration="6"  state="rryrrrrrryrrr"/>
        <phase duration="19" state="GrrGGrrrrrGGr"/>
        <phase duration="6"  state="yrryyrrrrryyr"/>
        <phase duration="19" state="rrrrrGGrrrrrG"/>
        <phase duration="6"  state="rrrrryyrrrrry"/>
    </tlLogic>
    <tlLogic id="gneJ28" type="static" programID="0" offset="0">
        <phase duration="27" state="GGrrrrGGGG"/>
        <phase duration="10" state="yyrrrryyyy"/>
        <phase duration="27" state="GGGrrrrrrr"/>
        <phase duration="10" state="yyyrrrrrrr"/>
        <phase duration="27" state="GGrGGGGGrr"/>
        <phase duration="10" state="yyryyyyyrr"/>
    </tlLogic>
    <tlLogic id="gneJ28" type="static" programID="1" offset="0">
        <phase duration="27" state="GGrrrrGGGG"/>
        <phase duration="10" state="yyrrrryyyy"/>
        <phase duration="40" state="GGGrrrrrrr"/>
        <phase duration="10" state="yyyrrrrrrr"/>
        <phase duration="40" state="GGrGGGGGrr"/>
        <phase duration="10" state="yyryyyyyrr"/>
    </tlLogic>
    <tlLogic id="gneJ29" type="static" programID="0" offset="0">
        <phase duration="27" state="rrrGGGGGGr"/>
        <phase duration="10" state="rrryyyyyyr"/>
        <phase duration="40" state="rrrrrrrGGG"/>
        <phase duration="10" state="rrrrrrryyy"/>
        <phase duration="40" state="GGGGGrrGGr"/>
        <phase duration="10" state="yyyyyrryyr"/>
    </tlLogic>
    <tlLogic id="gneJ30" type="static" programID="0" offset="0">
        <phase duration="35" state="GGGGGG"/>
    </tlLogic>
    <tlLogic id="gneJ32" type="static" programID="0" offset="0">
        <phase duration="27" state="GGrrrrGGGG"/>
        <phase duration="10" state="yyrrrryyyy"/>
        <phase duration="40" state="GGGrrrrrrr"/>
        <phase duration="10" state="yyyrrrrrrr"/>
        <phase duration="40" state="GGrGGGGGrr"/>
        <phase duration="10" state="yyryyyyyrr"/>
    </tlLogic>
    <tlLogic id="gneJ32" type="static" programID="1" offset="0">
        <phase duration="27" state="GGrrrrGGGG"/>
        <phase duration="10" state="yyrrrryyyy"/>
        <phase duration="40" state="GGGrrrrrrr"/>
        <phase duration="10" state="yyyrrrrrrr"/>
        <phase duration="27" state="GGrGGGGGrr"/>
        <phase duration="10" state="yyryyyyyrr"/>
    </tlLogic>
    <tlLogic id="gneJ32" type="static" programID="2" offset="0">
        <phase duration="27" state="GGrrrrGGGG"/>
        <phase duration="10" state="yyrrrryyyy"/>
        <phase duration="40" state="GGGrrrrrrr"/>
        <phase duration="10" state="yyyrrrrrrr"/>
        <phase duration="27" state="GGrGGGGGrr"/>
        <phase duration="10" state="yyryyyyyrr"/>
    </tlLogic>
    <tlLogic id="gneJ33" type="static" programID="0" offset="0">
        <phase duration="35" state="GGGGGG"/>
        <phase duration="10" state="yyyyyy"/>
        <phase duration="35" state="GGGGGG"/>
        <phase duration="10" state="yyyyyy"/>
    </tlLogic>
    <tlLogic id="gneJ33" type="static" programID="1" offset="0">
        <phase duration="35" state="GGGGGG"/>
        <phase duration="10" state="yyyyyy"/>
        <phase duration="35" state="GGGGGG"/>
        <phase duration="10" state="yyyyyy"/>
    </tlLogic>
    <tlLogic id="gneJ33" type="static" programID="10" offset="0">
        <phase duration="35" state="GGGGGG"/>
        <phase duration="10" state="yyyyyy"/>
        <phase duration="35" state="GGGGGG"/>
        <phase duration="10" state="yyyyyy"/>
    </tlLogic>
    <tlLogic id="gneJ33" type="static" programID="11" offset="0">
        <phase duration="35" state="GGGGGG"/>
        <phase duration="10" state="yyyyyy"/>
        <phase duration="35" state="GGGGGG"/>
        <phase duration="10" state="yyyyyy"/>
    </tlLogic>
    <tlLogic id="gneJ33" type="static" programID="12" offset="0">
        <phase duration="35" state="GGGGGG"/>
        <phase duration="10" state="yyyyyy"/>
        <phase duration="35" state="GGGGGG"/>
        <phase duration="10" state="yyyyyy"/>
    </tlLogic>
    <tlLogic id="gneJ33" type="static" programID="2" offset="0">
        <phase duration="35" state="GGGGGG"/>
        <phase duration="10" state="yyyyyy"/>
        <phase duration="35" state="GGGGGG"/>
        <phase duration="10" state="yyyyyy"/>
    </tlLogic>
    <tlLogic id="gneJ33" type="static" programID="3" offset="0">
        <phase duration="35" state="GGGGGG"/>
    </tlLogic>
    <tlLogic id="gneJ33" type="static" programID="4" offset="0">
        <phase duration="35" state="GGGGGG"/>
        <phase duration="10" state="yyyyyy"/>
        <phase duration="35" state="GGGGGG"/>
        <phase duration="10" state="yyyyyy"/>
    </tlLogic>
    <tlLogic id="gneJ33" type="static" programID="5" offset="0">
        <phase duration="35" state="GGGGGG"/>
        <phase duration="10" state="yyyyyy"/>